/batch
/config,noeldb,1     ! force off writing results to database
*get,_wallstrt,active,,time,wall
! ANSYS input file written by Workbench version 18.2 RELEASE
! File used for geometry attach: C:\Users\macbook\Desktop\Part.STEP
/title,unsaved_project--Static Structural (B5)
*DIM,_wb_ProjectScratch_dir,string,248
_wb_ProjectScratch_dir(1) = 'C:\Users\macbook\AppData\Local\Temp\WB_ALI_macbook_11924_2\_ProjectScratch\Scr85C8\'
*DIM,_wb_SolverFiles_dir,string,248
_wb_SolverFiles_dir(1) = 'C:\Users\macbook\AppData\Local\Temp\WB_ALI_macbook_11924_2\unsaved_project_files\dp0\SYS-1\MECH\'
*DIM,_wb_userfiles_dir,string,248
_wb_userfiles_dir(1) = 'C:\Users\macbook\AppData\Local\Temp\WB_ALI_macbook_11924_2\unsaved_project_files\user_files\'
/com,--- Data in consistent MKS units. See Solving Units in the help system for more information.
/units,MKS
/nopr
/wb,file,start              !  signify a WB generated input file
/prep7
! Turn off shape checking because checks already performed inside WB mesher.
! See help system for more information.
SHPP,OFF,,NOWARN
/nolist
etcon,set             ! allow ANSYS to choose best KEYOP's for 180x elements
/com,*********** Nodes for the whole assembly ***********
nblock,3,,5262
(1i9,3e20.9e3)
        1    3.500000000E-002    0.000000000E+000   -2.100000000E-002
        2    3.500000000E-002    0.000000000E+000   -9.000000000E-003
        3    2.980384758E-002    0.000000000E+000   -1.800000000E-002
        4    2.980384758E-002    0.000000000E+000   -1.200000000E-002
        5    3.500000000E-002    2.300000000E-002   -2.100000000E-002
        6    3.500000000E-002    5.750000000E-003   -2.100000000E-002
        7    3.500000000E-002    1.150000000E-002   -2.100000000E-002
        8    3.500000000E-002    1.725000000E-002   -2.100000000E-002
        9    3.500000000E-002    2.300000000E-002   -9.000000000E-003
       10    2.980384758E-002    2.300000000E-002   -1.800000000E-002
       11    2.980384758E-002    2.300000000E-002   -1.200000000E-002
       12    3.500000000E-002    5.750000000E-003   -9.000000000E-003
       13    3.500000000E-002    1.150000000E-002   -9.000000000E-003
       14    3.500000000E-002    1.725000000E-002   -9.000000000E-003
       15    1.500000000E-002    0.000000000E+000   -1.210000000E-001
       16    1.500000000E-002    0.000000000E+000   -1.090000000E-001
       17    9.803847577E-003    0.000000000E+000   -1.180000000E-001
       18    9.803847577E-003    0.000000000E+000   -1.120000000E-001
       19    1.500000000E-002    2.300000000E-002   -1.210000000E-001
       20    1.500000000E-002    5.750000000E-003   -1.210000000E-001
! ... 4765 like lines cut
/wb,elem,start            !  set before creation of elements
/com,*********** Elements for Body 1 "Part" ***********
et,1,187
eblock,19,solid,,2468
(19i9)
        1        1        1        1        0        0        0        0       10        0        1      438      492      505      614     3275     3600     3277     3279
     3603     3684
        1        1        1        1        0        0        0        0       10        0        2      438      505      492      504     3277     3600     3275     3276
     3676     3599
        1        1        1        1        0        0        0        0       10        0        3      438      603      492      614     3278     3602     3275     3279
     4264     3603
        1        1        1        1        0        0        0        0       10        0        4      438      492      603      504     3275     3602     3278     3276
     3599     3678
        1        1        1        1        0        0        0        0       10        0        5      474      604      481      486     3484     3524     3481     3482
     3551     3520
        1        1        1        1        0        0        0        0       10        0        6      481      486      604      603     3520     3551     3524     3523
     3550     4262
        1        1        1        1        0        0        0        0       10        0        7      474      593      604      486     3483     4205     3484     3482
     3549     3551
        1        1        1        1        0        0        0        0       10        0        8      486      593      604      603     3549     4205     3551     3550
     4204     4262
        1        1        1        1        0        0        0        0       10        0        9      478      631      497      640     3504     3632     3503     3505
     4356     3633
        1        1        1        1        0        0        0        0       10        0       10      483      497      631      627     3535     3632     3537     3536
     3631     4325
! ... 4917 like lines cut
!Material Id = {2FC02D8C-8526-4EAF-966D-C909496FC939}
/wb,elem,end               !  done creating elements
/com,*********** Send User Defined Coordinate System(s) ***********
csys,0
toffst,273.15,  ! Temperature offset from absolute zero
/com,*********** Set Reference Temperature ***********
tref,22.
/wb,mat,start              !  starting to send materials
/com,*********** Send Materials ***********
MP,DENS,1,2770,	! kg m^-3
MP,ALPX,1,2.3e-05,	! C^-1
MP,C,1,875,	! J kg^-1 C^-1
MPTEMP,,,,,,,,
MPTEMP,1,-100
MPTEMP,2,0
MPTEMP,3,100
MPTEMP,4,200
MPDATA,KXX,1, ,114,144,165,175,	! W m^-1 C^-1
MPTEMP,,,,,,,,
MPTEMP,,,,,,,,
MPTEMP,1,0
MPTEMP,2,20
MPTEMP,3,100
MPDATA,RSVX,1, ,2.43e-08,2.67e-08,3.63e-08,	! kg m^3 A^-2 s^-3
MPTEMP,,,,,,,,
MP,EX,1,71000000000,	! Pa
MP,NUXY,1,0.33,
MP,MURX,1,1,

/wb,mat,end                !  done sending materials
!************************* Model Summary ********************
!Part,	Aluminum Alloy,	matid,	1
!************************* End Model Summary ********************
! get the diagonal of the bounding box. Needed later for other things
*get,_xmin,node,,mnloc,x
*get,_ymin,node,,mnloc,y
*get,_zmin,node,,mnloc,z
*get,_xmax,node,,mxloc,x
*get,_ymax,node,,mxloc,y
*get,_zmax,node,,mxloc,z
_ASMDIAG=(_xmax-_xmin)*(_xmax-_xmin)+(_ymax-_ymin)*(_ymax-_ymin)+(_zmax-_zmin)*(_zmax-_zmin)
_ASMDIAG=SQRT(_ASMDIAG)
/wb,contact,start          !  starting to send contact
/wb,contact,end            !  done creating contacts
/golist
/wb,load,start             !  starting to send loads
/com,*********** Fixed Supports ***********
CMBLOCK,_FIXEDSU,NODE,      326
(8i10)
         1         2         3         4         5         9        10        11
        43        44        45        46        47        51        52        53
       142       143       144       145       146       147       148       152
       153       154       155       156       188       189       190       191
       192       193       194       198       199       200       201       202
       261       262       263       264       265       266       267       268
       269       270       271       272       273       274       275       276
       277       278       279       280       281       282       283       284
       285       286       287       288       289       290       291       292
       293       294       295       296       371       372       382       383
       402       403       404       405       406       407       408       409
       410       411       412       413       414       415       416       417
       576       577       578       579       580       581       582       583
       811       813       814       815       816       817       818       822
       824       825       826       827       830       832       833       837
       841       842       843       847       848       849       850       851
       852       853       886       888       889       890       891       894
       895       896       898       901       902       903      1173      1175
      1176      1177      1178      1179      1182      1184      1185      1186
      1187      1190      1192      1193      1196      1199      1200      1201
! ... 21 like lines cut
cmsel,s,_FIXEDSU
d,all,all
nsel,all
/com,*********** Define Force Using Surface Effect Elements ***********
local,12,0,0.,0.,0.,-0.,0.,0.
csys,0
et,2,154
eblock,10,,,58
(15i9)
     2469        2        2        2       12       33      250      251      251     1088     2351      251     1089
     2470        2        2        2       12       37      247      399      399     1121     2335      399     1124
     2471        2        2        2       12       38      253      258      258     1134     2364      258     1135
     2472        2        2        2       12      253      254      258      258     2363     2369      258     2364
     2473        2        2        2       12      257       39      258      258     1140     1141      258     2380
     2474        2        2        2       12       33      252       38       38     1090     1133       38     1087
     2475        2        2        2       12      128      259      129      129     1720     1726      129     1719
     2476        2        2        2       12       38      252      253      253     1133     2359      253     1134
     2477        2        2        2       12      128      260      259      259     1721     2390      259     1720
     2478        2        2        2       12       19      254      255      255      967     2368      255      968
     2479        2        2        2       12       37       39      584      584     1119     1145      584     1125
     2480        2        2        2       12      258       39       38       38     1141     1132       38     1135
     2481        2        2        2       12       33      251      252      252     1089     2355      252     1090
     2482        2        2        2       12      247      584      398      398     2337     3109      398     2334
     2483        2        2        2       12      249      585      400      400     2349     3115      400     2346
     2484        2        2        2       12      364      585      401      401     3004     3117      401     3001
     2485        2        2        2       12       37      585      259      259     1126     2392      259     1123
     2486        2        2        2       12       37      584      247      247     1125     2337      247     1121
     2487        2        2        2       12      126      364      401      401     1711     3001      401     1712
     2488        2        2        2       12      122      250      127      127     1697     1714      127     1696
! ... 39 like lines cut
esel,s,type,,2
keyop,2,2,1                ! Apply load in local coordinate system
keyop,2,7,1                ! Use original area so load is constant in large deformation
keyop,2,11,2               ! Use real and not project area
esel,all

*DIM,_loadvari33x,TABLE,2,1,1,TIME,
! Time values
_loadvari33x(1,0,1) = 0.
_loadvari33x(2,0,1) = 1.
! Load values
_loadvari33x(1,1,1) = 0.
_loadvari33x(2,1,1) = 0.


*DIM,_loadvari33y,TABLE,2,1,1,TIME,
! Time values
_loadvari33y(1,0,1) = 0.
_loadvari33y(2,0,1) = 1.
! Load values
_loadvari33y(1,1,1) = -0.
_loadvari33y(2,1,1) = -37036.929952747


*DIM,_loadvari33z,TABLE,2,1,1,TIME,
! Time values
_loadvari33z(1,0,1) = 0.
_loadvari33z(2,0,1) = 1.
! Load values
_loadvari33z(1,1,1) = 0.
_loadvari33z(2,1,1) = 0.

/gst,on,on
fini
*get,_numnode,node,0,count
*get,_numelem,elem,0,count
*get, _MAXELEMNUM, elem, 0, NUM, MAX
*get, _MAXNODENUM, node, 0, NUM, MAX
*get, _MAXELEMTYPE, etyp, 0, NUM, MAX
*get, _MAXREALCONST, real, 0, NUM, MAX
/go
/wb,load,end               !  done creating loads
/com,--- Number of total nodes = %_numnode%
/com,--- Number of contact elements = 58
/com,--- Number of spring elements = 0
/com,--- Number of bearing elements = 0
/com,--- Number of solid elements = 2468
/com,--- Number of condensed parts = 0
/com,--- Number of total elements = %_numelem%
*get,_wallbsol,active,,time,wall
/com,****************************************************************************
/com,*************************    SOLUTION       ********************************
/com,****************************************************************************
/solu
antype,0                   ! static analysis
eqsl,pcg,1e-8,,,,,,1
cntr,print,1               ! print out contact info and also make no initial contact an error
dmpoption,emat,no             ! Don't combine emat file for DANSYS
dmpoption,esav,no             ! Don't combine esav file for DANSYS
nldiag,cont,iter           ! print out contact info each equilibrium iteration
rescontrol,,none                 ! Do not keep any restart files
/com,****************************************************
/com,******************* SOLVE FOR LS 1 OF 1 ****************
esel,s,type,,2
nsle
sfe,all,1,pres,1,%_loadvari33x%
sfe,all,2,pres,1,%_loadvari33y%
sfe,all,3,pres,1,%_loadvari33z%
nsel,all
esel,all
/nopr
/gopr
nsub,1,1,1
time,1.
outres,erase
outres,all,none
outres,nsol,all
outres,rsol,all
outres,strs,all
outres,epel,all
outres,eppl,all
stabilize,off                   ! Stabilization turned OFF by user
! *********** WB SOLVE COMMAND ***********
! check interactive state
*get,ANSINTER_,active,,int
*if,ANSINTER_,ne,0,then
/eof
*endif
solve
/com *************** Write FE CONNECTORS ********* 
CEWRITE,file,ce,,INTE
/com,****************************************************
/com,*************** FINISHED SOLVE FOR LS 1 *************
*get,_wallasol,active,,time,wall
/nopr
*get,_numnode,node,0,count
*get,_numelem,elem,0,count
*get, _MAXELEMNUM, elem, 0, NUM, MAX
*get, _MAXNODENUM, node, 0, NUM, MAX,,,INTERNAL
*get, _MAXELEMTYPE, etyp, 0, NUM, MAX
*get, _MAXREALCONST, real, 0, NUM, MAX
/gopr
*get,_PCGITER,active,,solu,cgiter
/post1
xmlo,ENCODING,ISO-8859-1
xmlo,parm
/xml,parm,xml
fini
/gopr
*get,_walldone,active,,time,wall
_preptime=(_wallbsol-_wallstrt)*3600
_solvtime=(_wallasol-_wallbsol)*3600
_posttime=(_walldone-_wallasol)*3600
_totaltim=(_walldone-_wallstrt)*3600
/wb,file,end               ! done with WB generated input
